/*--------------------------------*- C++ -*----------------------------------*\
  =========                 |
  \\      /  F ield         | OpenFOAM: The Open Source CFD Toolbox
   \\    /   O peration     | Website:  https://openfoam.org
    \\  /    A nd           | Version:  6
     \\/     M anipulation  |
\*---------------------------------------------------------------------------*/
FoamFile
{
    version     2.0;
    format      ascii;
    class       volVectorField;
    location    "0";
    object      lm_b;
}
// * * * * * * * * * * * * * * * * * * * * * * * * * * * * * * * * * * * * * //

dimensions      [1 -2 -1 0 0 0 0];

internalField   uniform (0 0 0);

boundaryField
{
    loading
    {
        type    		tractionLinearMomentum;
        loadingType		pressure;
        pressure		-1e6;
        value 			uniform (0 0 0);
    }
  
    hole
     {
        type    tractionLinearMomentum;
        loadingType		traction;
        traction		(0 0 0);
        value 		uniform (0 0 0);
    }    
    front
     {
        type    tractionLinearMomentum;
        loadingType		traction;
        traction		(0 0 0);
        value 		uniform (0 0 0);
    }  
    tractionFree
    {
        type            tractionLinearMomentum;
        loadingType		traction;
        traction		(0 0 0);
        value 	    	uniform (0 0 0);
    }
    fixed
    {
        type    fixedValue;
        value   uniform (0 0 0);
    }
    
    symmetricX
    {
        type            symmetricLinearMomentum;
        value 		    uniform (0 0 0);
    }
   
    symmetricZ
    {
        type            symmetricLinearMomentum;
        value 		    uniform (0 0 0);
    }
   


}

// ************************************************************************* //
