/*--------------------------------*- C++ -*----------------------------------*\
  =========                 |
  \\      /  F ield         | OpenFOAM: The Open Source CFD Toolbox
   \\    /   O peration     | Website:  https://openfoam.org
    \\  /    A nd           | Version:  7
     \\/     M anipulation  |
\*---------------------------------------------------------------------------*/
FoamFile
{
    version     2.0;
    format      ascii;
    class       volTensorField;
    location    "0";
    object      P;
}
// * * * * * * * * * * * * * * * * * * * * * * * * * * * * * * * * * * * * * //

dimensions      [1 -1 -2 0 0 0 0];

internalField   uniform (0 0 0 0 0 0 0 0 0);

boundaryField
{
    symmetricZ
    {
        type            calculated;
        value           uniform (0 0 0 0 0 0 0 0 0);
    }
    front
    {
        type            calculated;
        value           uniform (0 0 0 0 0 0 0 0 0);
    }
    symmetricX
    {
        type            calculated;
        value           uniform (0 0 0 0 0 0 0 0 0);
    }
    loading
    {
        type            calculated;
        value           uniform (0 0 0 0 0 0 0 0 0);
    }
    fixed
    {
        type            calculated;
        value           uniform (0 0 0 0 0 0 0 0 0);
    }
    tractionFree
    {
        type            calculated;
        value           uniform (0 0 0 0 0 0 0 0 0);
    }
}


// ************************************************************************* //
