/*--------------------------------*- C++ -*----------------------------------*\
  =========                 |
  \\      /  F ield         | OpenFOAM: The Open Source CFD Toolbox
   \\    /   O peration     | Website:  https://openfoam.org
    \\  /    A nd           | Version:  7
     \\/     M anipulation  |
\*---------------------------------------------------------------------------*/
FoamFile
{
    version     2.0;
    format      ascii;
    class       polyBoundaryMesh;
    location    "constant/polyMesh";
    object      boundary;
}
// * * * * * * * * * * * * * * * * * * * * * * * * * * * * * * * * * * * * * //

5
(
    top
    {
        type            patch;
        nFaces          50;
        startFace       247;
    }
    left
    {
        type            patch;
        nFaces          3;
        startFace       297;
    }
    right
    {
        type            patch;
        nFaces          3;
        startFace       300;
    }
    bottom
    {
        type            patch;
        nFaces          50;
        startFace       303;
    }
    sides
    {
        type            patch;
        nFaces          300;
        startFace       353;
    }
)

// ************************************************************************* //
