/*--------------------------------*- C++ -*----------------------------------*\
| solids4foam: solid mechanics and fluid-solid interaction simulations        |
| Version:     v2.0                                                           |
| Web:         https://solids4foam.github.io                                  |
| Disclaimer:  This offering is not approved or endorsed by OpenCFD Limited,  |
|              producer and distributor of the OpenFOAM software via          |
|              www.openfoam.com, and owner of the OPENFOAM® and OpenCFD®      |
|              trade marks.                                                   |
\*---------------------------------------------------------------------------*/
FoamFile
{
    version     2.0;
    format      ascii;
    class       dictionary;
    location    "constant/polyMesh";
    object      blockMeshDict;
}
// * * * * * * * * * * * * * * * * * * * * * * * * * * * * * * * * * * * * * //

convertToMeters 1;

// Lengths
lx 0.05;
ly 0.001;
lz 0.001;

// Number of cells
cx 50;
cy 3;
cz 1;



vertices
(
 (0 0 0)
 ($lx 0 0)
 ($lx $ly 0)
 (0 $ly 0)
 (0 0 $lz)
 ($lx 0 $lz)
 ($lx $ly $lz)
 (0 $ly $lz)
);

blocks
(
    //hex (0 1 2 3 4 5 6 7) (100 5 1) simpleGrading (1 1 1) // test mesh

    hex (0 1 2 3 4 5 6 7) ($cx $cy $cz) simpleGrading (1 1 1) // mesh1
    //hex (0 1 2 3 4 5 6 7) (300 15 1) simpleGrading (1 1 1) // mesh2
   // hex (0 1 2 3 4 5 6 7) (500 25 1) simpleGrading (1 1 1) // mesh3
    //hex (0 1 2 3 4 5 6 7) (1000 50 1) simpleGrading (1 1 1) // mesh4
    //hex (0 1 2 3 4 5 6 7) (2000 100 1) simpleGrading (1 1 1) // mesh5
);

edges
(
);

patches
(
 patch top
 (
  (2 3 7 6)
  )

 patch left
 (
  (3 0 4 7)
  )

 patch right
 (
  (1 2 6 5)
  )

 patch bottom
 (
  (0 1 5 4)
  )

 patch sides
 (
  (7 6 5 4)
  (0 1 2 3)
  )

 );

mergePatchPairs
(
);

// ************************************************************************* //
