/*--------------------------------*- C++ -*----------------------------------*\
  =========                 |
  \\      /  F ield         | OpenFOAM: The Open Source CFD Toolbox
   \\    /   O peration     | Website:  https://openfoam.org
    \\  /    A nd           | Version:  6
     \\/     M anipulation  |
\*---------------------------------------------------------------------------*/
FoamFile
{
    version     2.0;
    format      ascii;
    class       dictionary;
    location    "system";
    object      controlDict;
}
// * * * * * * * * * * * * * * * * * * * * * * * * * * * * * * * * * * * * * //
libs
(

        "myexplicitSolidDynamicsFunctionObjects.so"


)

application     solidRoeFoam;

startFrom       latestTime;

startTime       0;

stopAt          endTime;

endTime         1e-5;

timeStepping    variable;

cfl             0.6;

deltaT          0;

writeControl    timeStep;

writeInterval   100;

purgeWrite      0;

writeFormat     ascii;

writePrecision  8;

writeCompression off;

timeFormat      general;

timePrecision   6;

graphFormat     raw;

runTimeModifiable true;
functions
{
  // #include   "components";
  #include  "probes_stress";
  // #include  "probes_displacement";
  displacement_prop
  {
      type                solidPointDisplacement;
      point               (0.05 0.0005 0.0005);
      writeControl        writeTime;
      writeInterval       1;
  }
}


// ************************************************************************* //
