/*--------------------------------*- C++ -*----------------------------------*\
  =========                 |
  \\      /  F ield         | OpenFOAM: The Open Source CFD Toolbox
   \\    /   O peration     | Website:  https://openfoam.org
    \\  /    A nd           | Version:  6
     \\/     M anipulation  |
\*---------------------------------------------------------------------------*/
FoamFile
{
    version     2.0;
    format      ascii;
    class       dictionary;
    location    "system";
    object      fvSolution;
}
// * * * * * * * * * * * * * * * * * * * * * * * * * * * * * * * * * * * * * //

angularMomentumConservation     no;
incompressiblilityCoefficient   1.0;
dampingCoeff  dampingCoeff [ 0 0 -1 0 0 0 0 ] 1092.059901909484;

/* tolerance   1e-4; */

// ************************************************************************* //
