/*--------------------------------*- C++ -*----------------------------------*\
  =========                 |
  \\      /  F ield         | OpenFOAM: The Open Source CFD Toolbox
   \\    /   O peration     | Website:  https://openfoam.org
    \\  /    A nd           | Version:  7
     \\/     M anipulation  |
\*---------------------------------------------------------------------------*/
FoamFile
{
    version     2.0;
    format      ascii;
    class       volTensorField;
    location    "0";
    object      deformation;
}
// * * * * * * * * * * * * * * * * * * * * * * * * * * * * * * * * * * * * * //

dimensions      [0 0 0 0 0 0 0];

internalField   uniform (1 0 0 0 1 0 0 0 1);

boundaryField
{
    left
    {
        type            calculated;
        value           uniform (1 0 0 0 1 0 0 0 1);
    }
    right
    {
        type            calculated;
        value           uniform (1 0 0 0 1 0 0 0 1);
    }
    down
    {
        type            calculated;
        value           uniform (1 0 0 0 1 0 0 0 1);
    }
    up
    {
        type            calculated;
        value           uniform (1 0 0 0 1 0 0 0 1);
    }
    hole
    {
        type            calculated;
        value           uniform (1 0 0 0 1 0 0 0 1);
    }
    frontAndBack
    {
        type            empty;
    }
}


// ************************************************************************* //
