/*--------------------------------*- C++ -*----------------------------------*\
  =========                 |
  \\      /  F ield         | OpenFOAM: The Open Source CFD Toolbox
   \\    /   O peration     | Website:  https://openfoam.org
    \\  /    A nd           | Version:  6
     \\/     M anipulation  |
\*---------------------------------------------------------------------------*/
FoamFile
{
    version     2.0;
    format      ascii;
    class       volVectorField;
    location    "0";
    object      lm_b;
}
// * * * * * * * * * * * * * * * * * * * * * * * * * * * * * * * * * * * * * //

dimensions      [1 -2 -1 0 0 0 0];

internalField   uniform (0 0 0);



boundaryField
{
    left
    {
        type            symmetricLinearMomentum;
        value 		    uniform (0 0 0);
    }
    right
    {
        type            analyticalPlateHoleTractionLinearMomentum;
        farFieldTractionX 1e6;
        holeRadius      0.5;
	    value           uniform (0 0 0);
    }
    down
    {
        type            symmetricLinearMomentum;
        value 		    uniform (0 0 0);
    }
    up
    {
        type            analyticalPlateHoleTractionLinearMomentum;
        farFieldTractionX 1e6;
        holeRadius      0.5;
	    value		uniform (0 0 0);
    }
    hole
    {
        type    tractionLinearMomentum;
        loadingType		traction;
        traction		(0 0 0);
        value 		uniform (0 0 0);
    }
    frontAndBack
    {
        type            empty;
    }
}


// ************************************************************************* //
