FoamFile
{
    version     2.0;
    format      ascii;
    class       dictionary;
    object      blockMeshDict;
}

convertToMeters 1.0;

// ============================================================
// Vertices
// ============================================================
//  y
//  |
//  |_____ x
// /
// z

vertices
(
    (0   0   0)   // 0
    (10  0   0)   // 1
    (10  1   0)   // 2
    (0   1   0)   // 3
    (0   0   1)   // 4
    (10  0   1)   // 5
    (10  1   1)   // 6
    (0   1   1)   // 7
);

// ============================================================
// Blocks
// ============================================================

blocks
(
    hex (0 1 2 3 4 5 6 7)
    (100 1 1)
    simpleGrading (1 1 1)
);

// ============================================================
// Edges (none needed)
// ============================================================

edges
(
);

// ============================================================
// Boundary patches
// ============================================================

boundary
(
    left
    {
        type patch;
        faces
        (
            (0 3 7 4)
        );
    }

    right
    {
        type patch;
        faces
        (
            (1 5 6 2)
        );
    }

    bottom
    {
        type patch;
        faces
        (
             (0 4 5 1)

        );
    }

    top
    {
        type patch;
        faces
        (
                       (3 2 6 7)

        );
    }

    sides
    {
        type empty;
        faces
        (
          
            (4 7 6 5)
            (0 1 2 3)

        );
    }
);

// ============================================================
// Merge patch pairs
// ============================================================

mergePatchPairs
(
);
